LTspice 24.1.9 for Windows
Circuit: C:\Users\joela\repos\projekt-am\pwm-tuning.net
Start Time: Thu Jan 29 09:08:29 2026
solver = Normal
Maximum thread count: 16
tnom = 27
temp = 27
method = trap
Instance "m1:M2": Length shorter than recommended for a level 1 MOSFET.
Direct Newton iteration failed to find .op point.  (Use ".option noopiter" to skip.)
Starting Gmin stepping
Gmin = 10
Gmin = 1.07374
Gmin = 0.115292
Gmin = 0.0123794
Gmin = 0.00132923
Gmin = 0.000142725
Gmin = 1.5325e-05
Gmin = 1.6455e-06
Gmin = 1.76685e-07
Gmin = 1.89714e-08
Gmin = 2.03704e-09
Gmin = 2.18725e-10
Gmin = 2.34854e-11
Gmin = 2.52173e-12
Gmin = 2.70769e-13
Gmin = 0
Gmin stepping succeeded in finding the operating point.

Total elapsed time: 9.571 seconds.

Files loaded:
C:\Users\joela\repos\projekt-am\pwm-tuning.net
C:\Users\joela\AppData\Local\LTspice\lib\cmp\standard.bjt
C:\Users\joela\repos\projekt-am\2N7000.onsemi.lib
C:\Users\joela\repos\projekt-am\BS250.philips.lib

rippel: PP(V(out))=0.00013256072998 FROM 0.18 TO 0.23
medel: AVG(V(out))=4.55723998046 FROM 0.18 TO 0.23
diff: medel-ideal=0.0572399804616
